REMARK  4 active torsions:
REMARK  status: ('A' for Active; 'I' for Inactive)
REMARK    1  A    between atoms: S_1  and  N_9 
REMARK    2  A    between atoms: S_1  and  C_17 
REMARK    3  A    between atoms: N_7  and  C_11 
REMARK    4  A    between atoms: C_14  and  C_25 
ROOT
ATOM      1  S   *** d   *      12.247  -1.562   0.146  0.00  0.00     0.239 S 
ATOM      2  O   *** d   *      13.010  -1.540   1.398  0.00  0.00    -0.206 OA
ATOM      3  O   *** d   *      12.762  -2.207  -1.066  0.00  0.00    -0.206 OA
ENDROOT
BRANCH   1   4
ATOM      4  N   *** d   *      11.622  -3.071   0.620  0.00  0.00    -0.225 NA
ATOM      5  H   *** d   *      11.877  -3.787  -0.059  0.00  0.00     0.136 HD
ATOM      6  H   *** d   *      12.041  -3.365   1.502  0.00  0.00     0.136 HD
ENDBRANCH   1   4
BRANCH   1   7
ATOM      7  C   *** d   *      11.033  -0.273  -0.086  0.00  0.00     0.074 A 
ATOM      8  C   *** d   *      11.319   1.004   0.203  0.00  0.00     0.027 A 
ATOM      9  C   *** d   *      10.407   1.969   0.004  0.00  0.00     0.033 A 
ATOM     10  C   *** d   *       9.156   1.728  -0.455  0.00  0.00     0.059 A 
ATOM     11  C   *** d   *       8.931   0.439  -0.788  0.00  0.00     0.033 A 
ATOM     12  C   *** d   *       9.827  -0.544  -0.603  0.00  0.00     0.027 A 
BRANCH  10  13
ATOM     13  N   *** d   *       8.306   2.676  -0.644  0.00  0.00    -0.233 N 
ATOM     14  N   *** d   *       8.743   3.842  -0.642  0.00  0.00    -0.162 NA
ATOM     15  C   *** d   *       7.848   4.664  -0.973  0.00  0.00     0.163 A 
ATOM     16  C   *** d   *       6.731   3.969  -1.175  0.00  0.00     0.070 A 
ATOM     17  C   *** d   *       7.044   2.684  -0.913  0.00  0.00     0.071 A 
ATOM     18  C   *** d   *       6.057   1.760  -0.823  0.00  0.00    -0.007 A 
ATOM     19  C   *** d   *       6.143   0.680  -0.018  0.00  0.00     0.014 A 
ATOM     20  C   *** d   *       4.869   1.911  -1.446  0.00  0.00     0.014 A 
ATOM     21  C   *** d   *       5.157  -0.222   0.101  0.00  0.00     0.007 A 
ATOM     22  C   *** d   *       4.004  -0.077  -0.569  0.00  0.00    -0.062 A 
ATOM     23  C   *** d   *       3.875   1.014  -1.340  0.00  0.00     0.007 A 
ATOM     24  C   *** d   *       2.892  -1.090  -0.439  0.00  0.00     0.048 C 
BRANCH  15  25
ATOM     25  C   *** d   *       8.099   6.142  -1.075  0.00  0.00     0.436 C 
ATOM     26  F   *** d   *       7.007   6.803  -1.424  0.00  0.00    -0.165 F 
ATOM     27  F   *** d   *       9.035   6.399  -1.976  0.00  0.00    -0.165 F 
ATOM     28  F   *** d   *       8.515   6.630   0.084  0.00  0.00    -0.165 F 
ENDBRANCH  15  25
ENDBRANCH  10  13
ENDBRANCH   1   7
TORSDOF 4
