@<TRIPOS>MOLECULE
Unnamed
40 42 1 0 0
SMALL
USER_CHARGES


@<TRIPOS>ATOM
      1 S          12.2473   -1.5621    0.1456 S.o       1     ****    0.0000
      2 F           7.0074    6.8027   -1.4241 F         1     ****    0.0000
      3 F           9.0350    6.3990   -1.9756 F         1     ****    0.0000
      4 F           8.5155    6.6297    0.0839 F         1     ****    0.0000
      5 O          13.0101   -1.5401    1.3976 O.2       1     ****    0.0000
      6 O          12.7625   -2.2069   -1.0661 O.2       1     ****    0.0000
      7 N           8.3059    2.6758   -0.6438 N.ar      1     ****    0.0000
      8 N           8.7433    3.8422   -0.6421 N.ar      1     ****    0.0000
      9 N          11.6218   -3.0714    0.6202 N.3       1     ****    0.0000
     10 C           7.0438    2.6844   -0.9128 C.ar      1     ****    0.0000
     11 C           9.1565    1.7275   -0.4547 C.ar      1     ****    0.0000
     12 C           6.0572    1.7596   -0.8232 C.ar      1     ****    0.0000
     13 C           6.7308    3.9687   -1.1751 C.ar      1     ****    0.0000
     14 C           7.8483    4.6638   -0.9728 C.ar      1     ****    0.0000
     15 C          10.4074    1.9694    0.0038 C.ar      1     ****    0.0000
     16 C           8.9311    0.4387   -0.7880 C.ar      1     ****    0.0000
     17 C          11.0331   -0.2730   -0.0860 C.ar      1     ****    0.0000
     18 C           6.1432    0.6805   -0.0180 C.ar      1     ****    0.0000
     19 C           4.8686    1.9105   -1.4460 C.ar      1     ****    0.0000
     20 C          11.3192    1.0037    0.2029 C.ar      1     ****    0.0000
     21 C           9.8271   -0.5439   -0.6028 C.ar      1     ****    0.0000
     22 C           4.0036   -0.0769   -0.5690 C.ar      1     ****    0.0000
     23 C           5.1569   -0.2220    0.1011 C.ar      1     ****    0.0000
     24 C           3.8749    1.0136   -1.3402 C.ar      1     ****    0.0000
     25 C           8.0994    6.1422   -1.0746 C.3       1     ****    0.0000
     26 C           2.8924   -1.0904   -0.4391 C.3       1     ****    0.0000
     27 H           5.7683    4.4300   -1.4238 H         1     ****    0.0000
     28 H          10.7470    2.9835    0.2760 H         1     ****    0.0000
     29 H           8.0135    0.1306   -1.3110 H         1     ****    0.0000
     30 H           7.0072    0.5318    0.6497 H         1     ****    0.0000
     31 H           4.6678    2.7604   -2.1181 H         1     ****    0.0000
     32 H          12.3111    1.2696    0.6070 H         1     ****    0.0000
     33 H           9.5767   -1.5718   -0.9166 H         1     ****    0.0000
     34 H           5.2807   -1.0765    0.7877 H         1     ****    0.0000
     35 H           2.9369    1.1764   -1.8973 H         1     ****    0.0000
     36 H           3.2961   -2.1246   -0.3530 H         1     ****    0.0000
     37 H           2.2861   -0.8732    0.4696 H         1     ****    0.0000
     38 H           2.2132   -1.0794   -1.3210 H         1     ****    0.0000
     39 H          11.8769   -3.7872   -0.0589 H         1     ****    0.0000
     40 H          12.0409   -3.3645    1.5016 H         1     ****    0.0000
@<TRIPOS>BOND
     1     1     5     2
     2     1     6     2
     3     1     9     1
     4     1    17     1
     5     2    25     1
     6     3    25     1
     7     4    25     1
     8     7     8     1
     9     7    10     1
    10     7    11     1
    11     8    14     2
    12     9    39     1
    13     9    40     1
    14    10    12     1
    15    10    13     2
    16    11    15     1
    17    11    16     2
    18    12    18     1
    19    12    19     2
    20    13    14     1
    21    13    27     1
    22    14    25     1
    23    15    20     2
    24    15    28     1
    25    16    21     1
    26    16    29     1
    27    17    20     1
    28    17    21     2
    29    18    23     2
    30    18    30     1
    31    19    24     1
    32    19    31     1
    33    20    32     1
    34    21    33     1
    35    22    23     1
    36    22    24     2
    37    22    26     1
    38    23    34     1
    39    24    35     1
    40    26    36     1
    41    26    37     1
    42    26    38     1
