MODEL 1
REMARK VINA RESULT:      -9.0      0.000      0.000
REMARK  4 active torsions:
REMARK  status: ('A' for Active; 'I' for Inactive)
REMARK    1  A    between atoms: S_1  and  N_9 
REMARK    2  A    between atoms: S_1  and  C_17 
REMARK    3  A    between atoms: N_7  and  C_11 
REMARK    4  A    between atoms: C_14  and  C_25 
ROOT
ATOM      1  S   *** d   *       5.237   0.651 -10.543  0.00  0.00     0.239 S 
ATOM      2  O   *** d   *       5.061  -0.248  -9.398  0.00  0.00    -0.206 OA
ATOM      3  O   *** d   *       4.316   0.646 -11.683  0.00  0.00    -0.206 OA
ENDROOT
BRANCH   1   4
ATOM      4  N   *** d   *       4.191   1.747  -9.771  0.00  0.00    -0.225 NA
ATOM      5  H   *** d   *       4.524   1.949  -8.829  0.00  0.00     0.136 HD
ATOM      6  H   *** d   *       4.193   2.642 -10.261  0.00  0.00     0.136 HD
ENDBRANCH   1   4
BRANCH   1   7
ATOM      7  C   *** d   *       6.888   1.260 -10.848  0.00  0.00     0.074 A 
ATOM      8  C   *** d   *       7.167   2.568 -10.766  0.00  0.00     0.027 A 
ATOM      9  C   *** d   *       8.417   3.013 -10.975  0.00  0.00     0.033 A 
ATOM     10  C   *** d   *       9.449   2.204 -11.311  0.00  0.00     0.059 A 
ATOM     11  C   *** d   *       9.136   0.890 -11.326  0.00  0.00     0.033 A 
ATOM     12  C   *** d   *       7.897   0.419 -11.116  0.00  0.00     0.027 A 
BRANCH  10  13
ATOM     13  N   *** d   *      10.638   2.660 -11.498  0.00  0.00    -0.233 N 
ATOM     14  N   *** d   *      11.282   3.002 -10.488  0.00  0.00    -0.162 NA
ATOM     15  C   *** d   *      12.470   3.297 -10.784  0.00  0.00     0.163 A 
ATOM     16  C   *** d   *      12.592   3.161 -12.103  0.00  0.00     0.070 A 
ATOM     17  C   *** d   *      11.376   2.788 -12.549  0.00  0.00     0.071 A 
ATOM     18  C   *** d   *      11.125   2.778 -13.880  0.00  0.00    -0.007 A 
ATOM     19  C   *** d   *       9.901   3.024 -14.392  0.00  0.00     0.014 A 
ATOM     20  C   *** d   *      12.106   2.634 -14.797  0.00  0.00     0.014 A 
ATOM     21  C   *** d   *       9.652   3.049 -15.710  0.00  0.00     0.007 A 
ATOM     22  C   *** d   *      10.634   2.851 -16.602  0.00  0.00    -0.062 A 
ATOM     23  C   *** d   *      11.870   2.651 -16.120  0.00  0.00     0.007 A 
ATOM     24  C   *** d   *      10.358   2.877 -18.086  0.00  0.00     0.048 C 
BRANCH  15  25
ATOM     25  C   *** d   *      13.481   3.726  -9.759  0.00  0.00     0.436 C 
ATOM     26  F   *** d   *      13.022   4.707  -8.997  0.00  0.00    -0.165 F 
ATOM     27  F   *** d   *      14.592   4.150 -10.342  0.00  0.00    -0.165 F 
ATOM     28  F   *** d   *      13.806   2.716  -8.966  0.00  0.00    -0.165 F 
ENDBRANCH  15  25
ENDBRANCH  10  13
ENDBRANCH   1   7
TORSDOF 4
ENDMDL
MODEL 2
REMARK VINA RESULT:      -7.8      2.264      3.072
REMARK  4 active torsions:
REMARK  status: ('A' for Active; 'I' for Inactive)
REMARK    1  A    between atoms: S_1  and  N_9 
REMARK    2  A    between atoms: S_1  and  C_17 
REMARK    3  A    between atoms: N_7  and  C_11 
REMARK    4  A    between atoms: C_14  and  C_25 
ROOT
ATOM      1  S   *** d   *       4.751   0.908 -10.017  0.00  0.00     0.239 S 
ATOM      2  O   *** d   *       4.928  -0.205  -9.078  0.00  0.00    -0.206 OA
ATOM      3  O   *** d   *       3.435   1.268 -10.555  0.00  0.00    -0.206 OA
ENDROOT
BRANCH   1   4
ATOM      4  N   *** d   *       4.419   1.907  -8.681  0.00  0.00    -0.225 NA
ATOM      5  H   *** d   *       3.416   1.930  -8.499  0.00  0.00     0.136 HD
ATOM      6  H   *** d   *       4.844   1.521  -7.838  0.00  0.00     0.136 HD
ENDBRANCH   1   4
BRANCH   1   7
ATOM      7  C   *** d   *       6.172   1.383 -10.989  0.00  0.00     0.074 A 
ATOM      8  C   *** d   *       6.305   0.977 -12.259  0.00  0.00     0.027 A 
ATOM      9  C   *** d   *       7.366   1.358 -12.989  0.00  0.00     0.033 A 
ATOM     10  C   *** d   *       8.368   2.127 -12.501  0.00  0.00     0.059 A 
ATOM     11  C   *** d   *       8.164   2.561 -11.238  0.00  0.00     0.033 A 
ATOM     12  C   *** d   *       7.110   2.199 -10.489  0.00  0.00     0.027 A 
BRANCH  10  13
ATOM     13  N   *** d   *       9.368   2.484 -13.228  0.00  0.00    -0.233 N 
ATOM     14  N   *** d   *      10.506   2.338 -12.743  0.00  0.00    -0.162 NA
ATOM     15  C   *** d   *      11.399   2.589 -13.594  0.00  0.00     0.163 A 
ATOM     16  C   *** d   *      10.782   2.958 -14.715  0.00  0.00     0.070 A 
ATOM     17  C   *** d   *       9.463   2.923 -14.438  0.00  0.00     0.071 A 
ATOM     18  C   *** d   *       8.580   3.453 -15.318  0.00  0.00    -0.007 A 
ATOM     19  C   *** d   *       7.414   4.012 -14.931  0.00  0.00     0.014 A 
ATOM     20  C   *** d   *       8.853   3.564 -16.635  0.00  0.00     0.014 A 
ATOM     21  C   *** d   *       6.550   4.569 -15.793  0.00  0.00     0.007 A 
ATOM     22  C   *** d   *       6.821   4.620 -17.106  0.00  0.00    -0.062 A 
ATOM     23  C   *** d   *       7.996   4.114 -17.510  0.00  0.00     0.007 A 
ATOM     24  C   *** d   *       5.851   5.244 -18.080  0.00  0.00     0.048 C 
BRANCH  15  25
ATOM     25  C   *** d   *      12.867   2.476 -13.291  0.00  0.00     0.436 C 
ATOM     26  F   *** d   *      13.594   3.240 -14.090  0.00  0.00    -0.165 F 
ATOM     27  F   *** d   *      13.282   1.227 -13.435  0.00  0.00    -0.165 F 
ATOM     28  F   *** d   *      13.119   2.840 -12.043  0.00  0.00    -0.165 F 
ENDBRANCH  15  25
ENDBRANCH  10  13
ENDBRANCH   1   7
TORSDOF 4
ENDMDL
MODEL 3
REMARK VINA RESULT:      -7.7      7.819     10.694
REMARK  4 active torsions:
REMARK  status: ('A' for Active; 'I' for Inactive)
REMARK    1  A    between atoms: S_1  and  N_9 
REMARK    2  A    between atoms: S_1  and  C_17 
REMARK    3  A    between atoms: N_7  and  C_11 
REMARK    4  A    between atoms: C_14  and  C_25 
ROOT
ATOM      1  S   *** d   *      21.354   1.475 -14.112  0.00  0.00     0.239 S 
ATOM      2  O   *** d   *      21.792   0.107 -13.817  0.00  0.00    -0.206 OA
ATOM      3  O   *** d   *      22.275   2.491 -14.631  0.00  0.00    -0.206 OA
ENDROOT
BRANCH   1   4
ATOM      4  N   *** d   *      21.078   0.980 -15.715  0.00  0.00    -0.225 NA
ATOM      5  H   *** d   *      20.221   1.401 -16.071  0.00  0.00     0.136 HD
ATOM      6  H   *** d   *      21.825   1.319 -16.322  0.00  0.00     0.136 HD
ENDBRANCH   1   4
BRANCH   1   7
ATOM      7  C   *** d   *      19.913   2.070 -13.240  0.00  0.00     0.074 A 
ATOM      8  C   *** d   *      19.631   1.642 -12.001  0.00  0.00     0.027 A 
ATOM      9  C   *** d   *      18.558   2.113 -11.345  0.00  0.00     0.033 A 
ATOM     10  C   *** d   *      17.687   2.999 -11.882  0.00  0.00     0.059 A 
ATOM     11  C   *** d   *      18.041   3.447 -13.106  0.00  0.00     0.033 A 
ATOM     12  C   *** d   *      19.111   2.996 -13.781  0.00  0.00     0.027 A 
BRANCH  10  13
ATOM     13  N   *** d   *      16.671   3.439 -11.225  0.00  0.00    -0.233 N 
ATOM     14  N   *** d   *      15.550   3.005 -11.550  0.00  0.00    -0.162 NA
ATOM     15  C   *** d   *      14.660   3.398 -10.751  0.00  0.00     0.163 A 
ATOM     16  C   *** d   *      15.256   4.177  -9.851  0.00  0.00     0.070 A 
ATOM     17  C   *** d   *      16.556   4.223 -10.206  0.00  0.00     0.071 A 
ATOM     18  C   *** d   *      17.383   5.112  -9.605  0.00  0.00    -0.007 A 
ATOM     19  C   *** d   *      18.442   5.661 -10.236  0.00  0.00     0.014 A 
ATOM     20  C   *** d   *      17.143   5.599  -8.369  0.00  0.00     0.014 A 
ATOM     21  C   *** d   *      19.246   6.567  -9.659  0.00  0.00     0.007 A 
ATOM     22  C   *** d   *      19.017   6.997  -8.409  0.00  0.00    -0.062 A 
ATOM     23  C   *** d   *      17.942   6.501  -7.777  0.00  0.00     0.007 A 
ATOM     24  C   *** d   *      19.920   8.015  -7.755  0.00  0.00     0.048 C 
BRANCH  15  25
ATOM     25  C   *** d   *      13.215   3.010 -10.888  0.00  0.00     0.436 C 
ATOM     26  F   *** d   *      12.500   3.400  -9.845  0.00  0.00    -0.165 F 
ATOM     27  F   *** d   *      13.089   1.697 -10.999  0.00  0.00    -0.165 F 
ATOM     28  F   *** d   *      12.682   3.556 -11.972  0.00  0.00    -0.165 F 
ENDBRANCH  15  25
ENDBRANCH  10  13
ENDBRANCH   1   7
TORSDOF 4
ENDMDL
MODEL 4
REMARK VINA RESULT:      -7.7     17.021     18.579
REMARK  4 active torsions:
REMARK  status: ('A' for Active; 'I' for Inactive)
REMARK    1  A    between atoms: S_1  and  N_9 
REMARK    2  A    between atoms: S_1  and  C_17 
REMARK    3  A    between atoms: N_7  and  C_11 
REMARK    4  A    between atoms: C_14  and  C_25 
ROOT
ATOM      1  S   *** d   *      13.786 -11.001 -13.335  0.00  0.00     0.239 S 
ATOM      2  O   *** d   *      14.126  -9.605 -13.046  0.00  0.00    -0.206 OA
ATOM      3  O   *** d   *      12.933 -11.374 -14.468  0.00  0.00    -0.206 OA
ENDROOT
BRANCH   1   4
ATOM      4  N   *** d   *      15.118 -11.047 -14.392  0.00  0.00    -0.225 NA
ATOM      5  H   *** d   *      15.951 -11.362 -13.895  0.00  0.00     0.136 HD
ATOM      6  H   *** d   *      14.960 -11.733 -15.129  0.00  0.00     0.136 HD
ENDBRANCH   1   4
BRANCH   1   7
ATOM      7  C   *** d   *      13.855 -12.152 -11.971  0.00  0.00     0.074 A 
ATOM      8  C   *** d   *      13.170 -11.925 -10.842  0.00  0.00     0.027 A 
ATOM      9  C   *** d   *      13.211 -12.807  -9.830  0.00  0.00     0.033 A 
ATOM     10  C   *** d   *      13.953 -13.939  -9.859  0.00  0.00     0.059 A 
ATOM     11  C   *** d   *      14.580 -14.156 -11.035  0.00  0.00     0.033 A 
ATOM     12  C   *** d   *      14.552 -13.293 -12.063  0.00  0.00     0.027 A 
BRANCH  10  13
ATOM     13  N   *** d   *      13.966 -14.770  -8.877  0.00  0.00    -0.233 N 
ATOM     14  N   *** d   *      12.931 -15.435  -8.680  0.00  0.00    -0.162 NA
ATOM     15  C   *** d   *      13.112 -16.305  -7.787  0.00  0.00     0.163 A 
ATOM     16  C   *** d   *      14.362 -16.166  -7.350  0.00  0.00     0.070 A 
ATOM     17  C   *** d   *      14.882 -15.134  -8.044  0.00  0.00     0.071 A 
ATOM     18  C   *** d   *      16.076 -14.611  -7.672  0.00  0.00    -0.007 A 
ATOM     19  C   *** d   *      16.385 -13.309  -7.845  0.00  0.00     0.014 A 
ATOM     20  C   *** d   *      16.998 -15.330  -6.998  0.00  0.00     0.014 A 
ATOM     21  C   *** d   *      17.552 -12.777  -7.450  0.00  0.00     0.007 A 
ATOM     22  C   *** d   *      18.475 -13.525  -6.827  0.00  0.00    -0.062 A 
ATOM     23  C   *** d   *      18.172 -14.813  -6.600  0.00  0.00     0.007 A 
ATOM     24  C   *** d   *      19.790 -12.931  -6.381  0.00  0.00     0.048 C 
BRANCH  15  25
ATOM     25  C   *** d   *      12.039 -17.265  -7.358  0.00  0.00     0.436 C 
ATOM     26  F   *** d   *      12.495 -18.503  -7.265  0.00  0.00    -0.165 F 
ATOM     27  F   *** d   *      11.035 -17.265  -8.222  0.00  0.00    -0.165 F 
ATOM     28  F   *** d   *      11.548 -16.924  -6.175  0.00  0.00    -0.165 F 
ENDBRANCH  15  25
ENDBRANCH  10  13
ENDBRANCH   1   7
TORSDOF 4
ENDMDL
MODEL 5
REMARK VINA RESULT:      -7.6      3.532      5.127
REMARK  4 active torsions:
REMARK  status: ('A' for Active; 'I' for Inactive)
REMARK    1  A    between atoms: S_1  and  N_9 
REMARK    2  A    between atoms: S_1  and  C_17 
REMARK    3  A    between atoms: N_7  and  C_11 
REMARK    4  A    between atoms: C_14  and  C_25 
ROOT
ATOM      1  S   *** d   *       4.511   0.700  -9.911  0.00  0.00     0.239 S 
ATOM      2  O   *** d   *       4.913  -0.277  -8.894  0.00  0.00    -0.206 OA
ATOM      3  O   *** d   *       3.115   0.850 -10.335  0.00  0.00    -0.206 OA
ENDROOT
BRANCH   1   4
ATOM      4  N   *** d   *       4.191   1.796  -8.651  0.00  0.00    -0.225 NA
ATOM      5  H   *** d   *       3.216   1.728  -8.364  0.00  0.00     0.136 HD
ATOM      6  H   *** d   *       4.739   1.555  -7.826  0.00  0.00     0.136 HD
ENDBRANCH   1   4
BRANCH   1   7
ATOM      7  C   *** d   *       5.762   1.220 -11.075  0.00  0.00     0.074 A 
ATOM      8  C   *** d   *       5.693   0.867 -12.366  0.00  0.00     0.027 A 
ATOM      9  C   *** d   *       6.627   1.281 -13.237  0.00  0.00     0.033 A 
ATOM     10  C   *** d   *       7.695   2.034 -12.881  0.00  0.00     0.059 A 
ATOM     11  C   *** d   *       7.694   2.414 -11.586  0.00  0.00     0.033 A 
ATOM     12  C   *** d   *       6.770   2.017 -10.696  0.00  0.00     0.027 A 
BRANCH  10  13
ATOM     13  N   *** d   *       8.570   2.423 -13.742  0.00  0.00    -0.233 N 
ATOM     14  N   *** d   *       8.228   2.429 -14.939  0.00  0.00    -0.162 NA
ATOM     15  C   *** d   *       9.113   2.958 -15.663  0.00  0.00     0.163 A 
ATOM     16  C   *** d   *      10.125   3.292 -14.865  0.00  0.00     0.070 A 
ATOM     17  C   *** d   *       9.765   2.895 -13.628  0.00  0.00     0.071 A 
ATOM     18  C   *** d   *      10.682   2.905 -12.629  0.00  0.00    -0.007 A 
ATOM     19  C   *** d   *      10.652   2.025 -11.606  0.00  0.00     0.014 A 
ATOM     20  C   *** d   *      11.755   3.723 -12.644  0.00  0.00     0.014 A 
ATOM     21  C   *** d   *      11.574   2.008 -10.631  0.00  0.00     0.007 A 
ATOM     22  C   *** d   *      12.605   2.866 -10.641  0.00  0.00    -0.062 A 
ATOM     23  C   *** d   *      12.683   3.720 -11.673  0.00  0.00     0.007 A 
ATOM     24  C   *** d   *      13.644   2.851  -9.545  0.00  0.00     0.048 C 
BRANCH  15  25
ATOM     25  C   *** d   *       8.960   3.118 -17.149  0.00  0.00     0.436 C 
ATOM     26  F   *** d   *       8.026   2.317 -17.635  0.00  0.00    -0.165 F 
ATOM     27  F   *** d   *      10.096   2.842 -17.771  0.00  0.00    -0.165 F 
ATOM     28  F   *** d   *       8.628   4.362 -17.456  0.00  0.00    -0.165 F 
ENDBRANCH  15  25
ENDBRANCH  10  13
ENDBRANCH   1   7
TORSDOF 4
ENDMDL
MODEL 6
REMARK VINA RESULT:      -7.4      4.471      5.857
REMARK  4 active torsions:
REMARK  status: ('A' for Active; 'I' for Inactive)
REMARK    1  A    between atoms: S_1  and  N_9 
REMARK    2  A    between atoms: S_1  and  C_17 
REMARK    3  A    between atoms: N_7  and  C_11 
REMARK    4  A    between atoms: C_14  and  C_25 
ROOT
ATOM      1  S   *** d   *       5.992   0.947 -11.450  0.00  0.00     0.239 S 
ATOM      2  O   *** d   *       6.802   0.054 -10.616  0.00  0.00    -0.206 OA
ATOM      3  O   *** d   *       4.529   0.861 -11.486  0.00  0.00    -0.206 OA
ENDROOT
BRANCH   1   4
ATOM      4  N   *** d   *       5.846   1.977 -10.105  0.00  0.00    -0.225 NA
ATOM      5  H   *** d   *       5.738   1.429  -9.252  0.00  0.00     0.136 HD
ATOM      6  H   *** d   *       6.701   2.518  -9.980  0.00  0.00     0.136 HD
ENDBRANCH   1   4
BRANCH   1   7
ATOM      7  C   *** d   *       6.788   1.666 -12.878  0.00  0.00     0.074 A 
ATOM      8  C   *** d   *       6.473   1.266 -14.117  0.00  0.00     0.027 A 
ATOM      9  C   *** d   *       7.061   1.829 -15.185  0.00  0.00     0.033 A 
ATOM     10  C   *** d   *       8.013   2.788 -15.092  0.00  0.00     0.059 A 
ATOM     11  C   *** d   *       8.256   3.201 -13.830  0.00  0.00     0.033 A 
ATOM     12  C   *** d   *       7.679   2.658 -12.746  0.00  0.00     0.027 A 
BRANCH  10  13
ATOM     13  N   *** d   *       8.552   3.315 -16.136  0.00  0.00    -0.233 N 
ATOM     14  N   *** d   *       9.774   3.135 -16.298  0.00  0.00    -0.162 NA
ATOM     15  C   *** d   *      10.154   3.576 -17.415  0.00  0.00     0.163 A 
ATOM     16  C   *** d   *       9.090   4.114 -18.008  0.00  0.00     0.070 A 
ATOM     17  C   *** d   *       8.071   3.970 -17.138  0.00  0.00     0.071 A 
ATOM     18  C   *** d   *       6.900   4.611 -17.367  0.00  0.00    -0.007 A 
ATOM     19  C   *** d   *       6.096   5.037 -16.370  0.00  0.00     0.014 A 
ATOM     20  C   *** d   *       6.505   4.971 -18.607  0.00  0.00     0.014 A 
ATOM     21  C   *** d   *       4.951   5.702 -16.589  0.00  0.00     0.007 A 
ATOM     22  C   *** d   *       4.554   6.003 -17.834  0.00  0.00    -0.062 A 
ATOM     23  C   *** d   *       5.360   5.631 -18.842  0.00  0.00     0.007 A 
ATOM     24  C   *** d   *       3.266   6.749 -18.085  0.00  0.00     0.048 C 
BRANCH  15  25
ATOM     25  C   *** d   *      11.577   3.476 -17.887  0.00  0.00     0.436 C 
ATOM     26  F   *** d   *      12.258   4.581 -17.631  0.00  0.00    -0.165 F 
ATOM     27  F   *** d   *      11.625   3.262 -19.193  0.00  0.00    -0.165 F 
ATOM     28  F   *** d   *      12.200   2.469 -17.294  0.00  0.00    -0.165 F 
ENDBRANCH  15  25
ENDBRANCH  10  13
ENDBRANCH   1   7
TORSDOF 4
ENDMDL
MODEL 7
REMARK VINA RESULT:      -7.0     16.134     19.047
REMARK  4 active torsions:
REMARK  status: ('A' for Active; 'I' for Inactive)
REMARK    1  A    between atoms: S_1  and  N_9 
REMARK    2  A    between atoms: S_1  and  C_17 
REMARK    3  A    between atoms: N_7  and  C_11 
REMARK    4  A    between atoms: C_14  and  C_25 
ROOT
ATOM      1  S   *** d   *      17.133  -1.602 -23.174  0.00  0.00     0.239 S 
ATOM      2  O   *** d   *      15.956  -1.119 -22.443  0.00  0.00    -0.206 OA
ATOM      3  O   *** d   *      18.379  -1.961 -22.489  0.00  0.00    -0.206 OA
ENDROOT
BRANCH   1   4
ATOM      4  N   *** d   *      16.584  -3.188 -22.894  0.00  0.00    -0.225 NA
ATOM      5  H   *** d   *      16.012  -3.506 -23.676  0.00  0.00     0.136 HD
ATOM      6  H   *** d   *      17.374  -3.831 -22.850  0.00  0.00     0.136 HD
ENDBRANCH   1   4
BRANCH   1   7
ATOM      7  C   *** d   *      17.268  -1.134 -24.892  0.00  0.00     0.074 A 
ATOM      8  C   *** d   *      18.116  -0.172 -25.280  0.00  0.00     0.027 A 
ATOM      9  C   *** d   *      18.227   0.157 -26.577  0.00  0.00     0.033 A 
ATOM     10  C   *** d   *      17.487  -0.415 -27.556  0.00  0.00     0.059 A 
ATOM     11  C   *** d   *      16.690  -1.418 -27.129  0.00  0.00     0.033 A 
ATOM     12  C   *** d   *      16.564  -1.770 -25.839  0.00  0.00     0.027 A 
BRANCH  10  13
ATOM     13  N   *** d   *      17.622  -0.084 -28.793  0.00  0.00    -0.233 N 
ATOM     14  N   *** d   *      16.605   0.316 -29.390  0.00  0.00    -0.162 NA
ATOM     15  C   *** d   *      16.891   0.738 -30.542  0.00  0.00     0.163 A 
ATOM     16  C   *** d   *      18.200   0.565 -30.711  0.00  0.00     0.070 A 
ATOM     17  C   *** d   *      18.645  -0.010 -29.576  0.00  0.00     0.071 A 
ATOM     18  C   *** d   *      19.905  -0.507 -29.527  0.00  0.00    -0.007 A 
ATOM     19  C   *** d   *      20.239  -1.569 -28.765  0.00  0.00     0.014 A 
ATOM     20  C   *** d   *      20.893  -0.046 -30.324  0.00  0.00     0.014 A 
ATOM     21  C   *** d   *      21.477  -2.087 -28.736  0.00  0.00     0.007 A 
ATOM     22  C   *** d   *      22.456  -1.578 -29.499  0.00  0.00    -0.062 A 
ATOM     23  C   *** d   *      22.137  -0.551 -30.302  0.00  0.00     0.007 A 
ATOM     24  C   *** d   *      23.850  -2.156 -29.469  0.00  0.00     0.048 C 
BRANCH  15  25
ATOM     25  C   *** d   *      15.860   1.300 -31.480  0.00  0.00     0.436 C 
ATOM     26  F   *** d   *      16.207   2.494 -31.933  0.00  0.00    -0.165 F 
ATOM     27  F   *** d   *      14.688   1.419 -30.875  0.00  0.00    -0.165 F 
ATOM     28  F   *** d   *      15.691   0.503 -32.525  0.00  0.00    -0.165 F 
ENDBRANCH  15  25
ENDBRANCH  10  13
ENDBRANCH   1   7
TORSDOF 4
ENDMDL
MODEL 8
REMARK VINA RESULT:      -6.9      5.518      6.882
REMARK  4 active torsions:
REMARK  status: ('A' for Active; 'I' for Inactive)
REMARK    1  A    between atoms: S_1  and  N_9 
REMARK    2  A    between atoms: S_1  and  C_17 
REMARK    3  A    between atoms: N_7  and  C_11 
REMARK    4  A    between atoms: C_14  and  C_25 
ROOT
ATOM      1  S   *** d   *       8.020   0.833 -11.402  0.00  0.00     0.239 S 
ATOM      2  O   *** d   *       8.858   1.516 -10.411  0.00  0.00    -0.206 OA
ATOM      3  O   *** d   *       8.027  -0.625 -11.552  0.00  0.00    -0.206 OA
ENDROOT
BRANCH   1   4
ATOM      4  N   *** d   *       6.838   0.651 -10.193  0.00  0.00    -0.225 NA
ATOM      5  H   *** d   *       7.084   1.206  -9.374  0.00  0.00     0.136 HD
ATOM      6  H   *** d   *       5.943   1.017 -10.517  0.00  0.00     0.136 HD
ENDBRANCH   1   4
BRANCH   1   7
ATOM      7  C   *** d   *       7.513   1.783 -12.827  0.00  0.00     0.074 A 
ATOM      8  C   *** d   *       8.170   2.895 -13.184  0.00  0.00     0.027 A 
ATOM      9  C   *** d   *       7.795   3.590 -14.269  0.00  0.00     0.033 A 
ATOM     10  C   *** d   *       6.735   3.251 -15.041  0.00  0.00     0.059 A 
ATOM     11  C   *** d   *       6.140   2.094 -14.680  0.00  0.00     0.033 A 
ATOM     12  C   *** d   *       6.498   1.378 -13.602  0.00  0.00     0.027 A 
BRANCH  10  13
ATOM     13  N   *** d   *       6.405   3.933 -16.082  0.00  0.00    -0.233 N 
ATOM     14  N   *** d   *       5.488   4.765 -15.951  0.00  0.00    -0.162 NA
ATOM     15  C   *** d   *       5.353   5.461 -16.992  0.00  0.00     0.163 A 
ATOM     16  C   *** d   *       6.239   5.016 -17.880  0.00  0.00     0.070 A 
ATOM     17  C   *** d   *       6.881   3.994 -17.280  0.00  0.00     0.071 A 
ATOM     18  C   *** d   *       7.698   3.196 -18.009  0.00  0.00    -0.007 A 
ATOM     19  C   *** d   *       7.884   1.890 -17.724  0.00  0.00     0.014 A 
ATOM     20  C   *** d   *       8.297   3.621 -19.142  0.00  0.00     0.014 A 
ATOM     21  C   *** d   *       8.665   1.086 -18.460  0.00  0.00     0.007 A 
ATOM     22  C   *** d   *       9.291   1.544 -19.554  0.00  0.00    -0.062 A 
ATOM     23  C   *** d   *       9.085   2.828 -19.887  0.00  0.00     0.007 A 
ATOM     24  C   *** d   *      10.172   0.643 -20.386  0.00  0.00     0.048 C 
BRANCH  15  25
ATOM     25  C   *** d   *       4.334   6.559 -17.109  0.00  0.00     0.436 C 
ATOM     26  F   *** d   *       3.157   6.097 -17.502  0.00  0.00    -0.165 F 
ATOM     27  F   *** d   *       4.725   7.472 -17.985  0.00  0.00    -0.165 F 
ATOM     28  F   *** d   *       4.162   7.168 -15.946  0.00  0.00    -0.165 F 
ENDBRANCH  15  25
ENDBRANCH  10  13
ENDBRANCH   1   7
TORSDOF 4
ENDMDL
MODEL 9
REMARK VINA RESULT:      -6.8     18.164     19.572
REMARK  4 active torsions:
REMARK  status: ('A' for Active; 'I' for Inactive)
REMARK    1  A    between atoms: S_1  and  N_9 
REMARK    2  A    between atoms: S_1  and  C_17 
REMARK    3  A    between atoms: N_7  and  C_11 
REMARK    4  A    between atoms: C_14  and  C_25 
ROOT
ATOM      1  S   *** d   *      12.459 -19.436  -4.382  0.00  0.00     0.239 S 
ATOM      2  O   *** d   *      13.648 -20.162  -3.923  0.00  0.00    -0.206 OA
ATOM      3  O   *** d   *      11.131 -20.057  -4.409  0.00  0.00    -0.206 OA
ENDROOT
BRANCH   1   4
ATOM      4  N   *** d   *      12.167 -19.005  -2.763  0.00  0.00    -0.225 NA
ATOM      5  H   *** d   *      11.337 -19.482  -2.416  0.00  0.00     0.136 HD
ATOM      6  H   *** d   *      12.935 -19.319  -2.171  0.00  0.00     0.136 HD
ENDBRANCH   1   4
BRANCH   1   7
ATOM      7  C   *** d   *      12.726 -18.068  -5.499  0.00  0.00     0.074 A 
ATOM      8  C   *** d   *      12.672 -18.240  -6.827  0.00  0.00     0.027 A 
ATOM      9  C   *** d   *      12.852 -17.201  -7.658  0.00  0.00     0.033 A 
ATOM     10  C   *** d   *      13.129 -15.946  -7.231  0.00  0.00     0.059 A 
ATOM     11  C   *** d   *      13.116 -15.806  -5.888  0.00  0.00     0.033 A 
ATOM     12  C   *** d   *      12.935 -16.828  -5.036  0.00  0.00     0.027 A 
BRANCH  10  13
ATOM     13  N   *** d   *      13.288 -14.968  -8.052  0.00  0.00    -0.233 N 
ATOM     14  N   *** d   *      12.321 -14.670  -8.777  0.00  0.00    -0.162 NA
ATOM     15  C   *** d   *      12.549 -13.618  -9.432  0.00  0.00     0.163 A 
ATOM     16  C   *** d   *      13.783 -13.224  -9.124  0.00  0.00     0.070 A 
ATOM     17  C   *** d   *      14.258 -14.142  -8.258  0.00  0.00     0.071 A 
ATOM     18  C   *** d   *      15.571 -14.132  -7.926  0.00  0.00    -0.007 A 
ATOM     19  C   *** d   *      16.251 -15.255  -7.612  0.00  0.00     0.014 A 
ATOM     20  C   *** d   *      16.324 -13.013  -7.995  0.00  0.00     0.014 A 
ATOM     21  C   *** d   *      17.559 -15.257  -7.313  0.00  0.00     0.007 A 
ATOM     22  C   *** d   *      18.275 -14.123  -7.339  0.00  0.00    -0.062 A 
ATOM     23  C   *** d   *      17.633 -12.999  -7.695  0.00  0.00     0.007 A 
ATOM     24  C   *** d   *      19.747 -14.121  -7.003  0.00  0.00     0.048 C 
BRANCH  15  25
ATOM     25  C   *** d   *      11.548 -13.013 -10.374  0.00  0.00     0.436 C 
ATOM     26  F   *** d   *      10.483 -13.784 -10.521  0.00  0.00    -0.165 F 
ATOM     27  F   *** d   *      12.082 -12.825 -11.571  0.00  0.00    -0.165 F 
ATOM     28  F   *** d   *      11.136 -11.835  -9.930  0.00  0.00    -0.165 F 
ENDBRANCH  15  25
ENDBRANCH  10  13
ENDBRANCH   1   7
TORSDOF 4
ENDMDL
MODEL 10
REMARK VINA RESULT:      -6.6     17.325     18.663
REMARK  4 active torsions:
REMARK  status: ('A' for Active; 'I' for Inactive)
REMARK    1  A    between atoms: S_1  and  N_9 
REMARK    2  A    between atoms: S_1  and  C_17 
REMARK    3  A    between atoms: N_7  and  C_11 
REMARK    4  A    between atoms: C_14  and  C_25 
ROOT
ATOM      1  S   *** d   *      11.871 -18.519  -6.919  0.00  0.00     0.239 S 
ATOM      2  O   *** d   *      11.230 -18.400  -5.606  0.00  0.00    -0.206 OA
ATOM      3  O   *** d   *      12.288 -19.815  -7.465  0.00  0.00    -0.206 OA
ENDROOT
BRANCH   1   4
ATOM      4  N   *** d   *      10.330 -18.796  -7.583  0.00  0.00    -0.225 NA
ATOM      5  H   *** d   *       9.887 -17.910  -7.825  0.00  0.00     0.136 HD
ATOM      6  H   *** d   *      10.410 -19.313  -8.458  0.00  0.00     0.136 HD
ENDBRANCH   1   4
BRANCH   1   7
ATOM      7  C   *** d   *      12.721 -17.077  -7.540  0.00  0.00     0.074 A 
ATOM      8  C   *** d   *      12.997 -16.947  -8.845  0.00  0.00     0.027 A 
ATOM      9  C   *** d   *      13.616 -15.848  -9.306  0.00  0.00     0.033 A 
ATOM     10  C   *** d   *      14.028 -14.836  -8.506  0.00  0.00     0.059 A 
ATOM     11  C   *** d   *      13.679 -14.981  -7.210  0.00  0.00     0.033 A 
ATOM     12  C   *** d   *      13.056 -16.067  -6.725  0.00  0.00     0.027 A 
BRANCH  10  13
ATOM     13  N   *** d   *      14.612 -13.791  -8.979  0.00  0.00    -0.233 N 
ATOM     14  N   *** d   *      14.028 -13.174  -9.889  0.00  0.00    -0.162 NA
ATOM     15  C   *** d   *      14.626 -12.101 -10.168  0.00  0.00     0.163 A 
ATOM     16  C   *** d   *      15.705 -12.039  -9.392  0.00  0.00     0.070 A 
ATOM     17  C   *** d   *      15.697 -13.169  -8.658  0.00  0.00     0.071 A 
ATOM     18  C   *** d   *      16.787 -13.498  -7.923  0.00  0.00    -0.007 A 
ATOM     19  C   *** d   *      17.139 -14.777  -7.676  0.00  0.00     0.014 A 
ATOM     20  C   *** d   *      17.664 -12.572  -7.480  0.00  0.00     0.014 A 
ATOM     21  C   *** d   *      18.234 -15.111  -6.976  0.00  0.00     0.007 A 
ATOM     22  C   *** d   *      19.064 -14.170  -6.502  0.00  0.00    -0.062 A 
ATOM     23  C   *** d   *      18.761 -12.891  -6.775  0.00  0.00     0.007 A 
ATOM     24  C   *** d   *      20.297 -14.540  -5.714  0.00  0.00     0.048 C 
BRANCH  15  25
ATOM     25  C   *** d   *      14.132 -11.144 -11.217  0.00  0.00     0.436 C 
ATOM     26  F   *** d   *      14.510 -11.509 -12.431  0.00  0.00    -0.165 F 
ATOM     27  F   *** d   *      14.597  -9.924 -10.996  0.00  0.00    -0.165 F 
ATOM     28  F   *** d   *      12.809 -11.076 -11.207  0.00  0.00    -0.165 F 
ENDBRANCH  15  25
ENDBRANCH  10  13
ENDBRANCH   1   7
TORSDOF 4
ENDMDL
MODEL 11
REMARK VINA RESULT:      -6.5     18.483     19.653
REMARK  4 active torsions:
REMARK  status: ('A' for Active; 'I' for Inactive)
REMARK    1  A    between atoms: S_1  and  N_9 
REMARK    2  A    between atoms: S_1  and  C_17 
REMARK    3  A    between atoms: N_7  and  C_11 
REMARK    4  A    between atoms: C_14  and  C_25 
ROOT
ATOM      1  S   *** d   *      13.785 -20.147  -5.862  0.00  0.00     0.239 S 
ATOM      2  O   *** d   *      14.652 -21.319  -5.703  0.00  0.00    -0.206 OA
ATOM      3  O   *** d   *      12.380 -20.269  -6.264  0.00  0.00    -0.206 OA
ENDROOT
BRANCH   1   4
ATOM      4  N   *** d   *      13.289 -20.366  -4.250  0.00  0.00    -0.225 NA
ATOM      5  H   *** d   *      13.298 -21.357  -4.011  0.00  0.00     0.136 HD
ATOM      6  H   *** d   *      13.950 -19.922  -3.614  0.00  0.00     0.136 HD
ENDBRANCH   1   4
BRANCH   1   7
ATOM      7  C   *** d   *      14.586 -18.588  -6.208  0.00  0.00     0.074 A 
ATOM      8  C   *** d   *      14.626 -17.615  -5.288  0.00  0.00     0.027 A 
ATOM      9  C   *** d   *      15.250 -16.455  -5.549  0.00  0.00     0.033 A 
ATOM     10  C   *** d   *      15.835 -16.176  -6.738  0.00  0.00     0.059 A 
ATOM     11  C   *** d   *      15.822 -17.204  -7.613  0.00  0.00     0.033 A 
ATOM     12  C   *** d   *      15.209 -18.375  -7.374  0.00  0.00     0.027 A 
BRANCH  10  13
ATOM     13  N   *** d   *      16.433 -15.057  -6.956  0.00  0.00    -0.233 N 
ATOM     14  N   *** d   *      17.524 -14.873  -6.384  0.00  0.00    -0.162 NA
ATOM     15  C   *** d   *      18.073 -13.812  -6.781  0.00  0.00     0.163 A 
ATOM     16  C   *** d   *      17.250 -13.249  -7.663  0.00  0.00     0.070 A 
ATOM     17  C   *** d   *      16.171 -14.056  -7.727  0.00  0.00     0.071 A 
ATOM     18  C   *** d   *      15.061 -13.638  -8.381  0.00  0.00    -0.007 A 
ATOM     19  C   *** d   *      13.818 -14.019  -8.021  0.00  0.00     0.014 A 
ATOM     20  C   *** d   *      15.110 -12.720  -9.370  0.00  0.00     0.014 A 
ATOM     21  C   *** d   *      12.712 -13.584  -8.643  0.00  0.00     0.007 A 
ATOM     22  C   *** d   *      12.789 -12.711  -9.659  0.00  0.00    -0.062 A 
ATOM     23  C   *** d   *      14.012 -12.280 -10.006  0.00  0.00     0.007 A 
ATOM     24  C   *** d   *      11.547 -12.219 -10.363  0.00  0.00     0.048 C 
BRANCH  15  25
ATOM     25  C   *** d   *      19.411 -13.349  -6.275  0.00  0.00     0.436 C 
ATOM     26  F   *** d   *      19.511 -12.030  -6.287  0.00  0.00    -0.165 F 
ATOM     27  F   *** d   *      20.390 -13.838  -7.021  0.00  0.00    -0.165 F 
ATOM     28  F   *** d   *      19.611 -13.760  -5.032  0.00  0.00    -0.165 F 
ENDBRANCH  15  25
ENDBRANCH  10  13
ENDBRANCH   1   7
TORSDOF 4
ENDMDL
MODEL 12
REMARK VINA RESULT:      -6.5     15.699     18.166
REMARK  4 active torsions:
REMARK  status: ('A' for Active; 'I' for Inactive)
REMARK    1  A    between atoms: S_1  and  N_9 
REMARK    2  A    between atoms: S_1  and  C_17 
REMARK    3  A    between atoms: N_7  and  C_11 
REMARK    4  A    between atoms: C_14  and  C_25 
ROOT
ATOM      1  S   *** d   *      16.864  -1.997 -22.424  0.00  0.00     0.239 S 
ATOM      2  O   *** d   *      15.705  -1.176 -22.058  0.00  0.00    -0.206 OA
ATOM      3  O   *** d   *      17.716  -2.632 -21.413  0.00  0.00    -0.206 OA
ENDROOT
BRANCH   1   4
ATOM      4  N   *** d   *      15.850  -3.360 -22.351  0.00  0.00    -0.225 NA
ATOM      5  H   *** d   *      16.325  -4.173 -22.741  0.00  0.00     0.136 HD
ATOM      6  H   *** d   *      15.647  -3.597 -21.380  0.00  0.00     0.136 HD
ENDBRANCH   1   4
BRANCH   1   7
ATOM      7  C   *** d   *      17.608  -1.684 -24.017  0.00  0.00     0.074 A 
ATOM      8  C   *** d   *      18.484  -0.683 -24.185  0.00  0.00     0.027 A 
ATOM      9  C   *** d   *      19.055  -0.470 -25.381  0.00  0.00     0.033 A 
ATOM     10  C   *** d   *      18.770  -1.204 -26.483  0.00  0.00     0.059 A 
ATOM     11  C   *** d   *      17.930  -2.236 -26.255  0.00  0.00     0.033 A 
ATOM     12  C   *** d   *      17.349  -2.473 -25.068  0.00  0.00     0.027 A 
BRANCH  10  13
ATOM     13  N   *** d   *      19.341  -0.982 -27.615  0.00  0.00    -0.233 N 
ATOM     14  N   *** d   *      20.521  -1.357 -27.742  0.00  0.00    -0.162 NA
ATOM     15  C   *** d   *      20.920  -1.211 -28.928  0.00  0.00     0.163 A 
ATOM     16  C   *** d   *      19.920  -0.665 -29.615  0.00  0.00     0.070 A 
ATOM     17  C   *** d   *      18.919  -0.486 -28.730  0.00  0.00     0.071 A 
ATOM     18  C   *** d   *      17.837   0.250 -29.082  0.00  0.00    -0.007 A 
ATOM     19  C   *** d   *      17.131   0.978 -28.191  0.00  0.00     0.014 A 
ATOM     20  C   *** d   *      17.455   0.399 -30.368  0.00  0.00     0.014 A 
ATOM     21  C   *** d   *      16.079   1.735 -28.538  0.00  0.00     0.007 A 
ATOM     22  C   *** d   *      15.686   1.827 -29.817  0.00  0.00    -0.062 A 
ATOM     23  C   *** d   *      16.401   1.150 -30.729  0.00  0.00     0.007 A 
ATOM     24  C   *** d   *      14.502   2.676 -30.212  0.00  0.00     0.048 C 
BRANCH  15  25
ATOM     25  C   *** d   *      22.301  -1.601 -29.375  0.00  0.00     0.436 C 
ATOM     26  F   *** d   *      22.517  -2.898 -29.228  0.00  0.00    -0.165 F 
ATOM     27  F   *** d   *      23.222  -0.953 -28.677  0.00  0.00    -0.165 F 
ATOM     28  F   *** d   *      22.484  -1.302 -30.652  0.00  0.00    -0.165 F 
ENDBRANCH  15  25
ENDBRANCH  10  13
ENDBRANCH   1   7
TORSDOF 4
ENDMDL
MODEL 13
REMARK VINA RESULT:      -6.4     38.632     40.086
REMARK  4 active torsions:
REMARK  status: ('A' for Active; 'I' for Inactive)
REMARK    1  A    between atoms: S_1  and  N_9 
REMARK    2  A    between atoms: S_1  and  C_17 
REMARK    3  A    between atoms: N_7  and  C_11 
REMARK    4  A    between atoms: C_14  and  C_25 
ROOT
ATOM      1  S   *** d   *     -12.540  -3.848  25.050  0.00  0.00     0.239 S 
ATOM      2  O   *** d   *     -13.991  -3.988  24.892  0.00  0.00    -0.206 OA
ATOM      3  O   *** d   *     -11.843  -4.305  26.256  0.00  0.00    -0.206 OA
ENDROOT
BRANCH   1   4
ATOM      4  N   *** d   *     -12.377  -5.420  24.424  0.00  0.00    -0.225 NA
ATOM      5  H   *** d   *     -12.836  -5.488  23.517  0.00  0.00     0.136 HD
ATOM      6  H   *** d   *     -11.394  -5.631  24.252  0.00  0.00     0.136 HD
ENDBRANCH   1   4
BRANCH   1   7
ATOM      7  C   *** d   *     -11.742  -2.562  24.101  0.00  0.00     0.074 A 
ATOM      8  C   *** d   *     -11.444  -2.744  22.807  0.00  0.00     0.027 A 
ATOM      9  C   *** d   *     -10.865  -1.764  22.096  0.00  0.00     0.033 A 
ATOM     10  C   *** d   *     -10.514  -0.568  22.626  0.00  0.00     0.059 A 
ATOM     11  C   *** d   *     -10.885  -0.406  23.914  0.00  0.00     0.033 A 
ATOM     12  C   *** d   *     -11.469  -1.369  24.646  0.00  0.00     0.027 A 
BRANCH  10  13
ATOM     13  N   *** d   *      -9.967   0.357  21.916  0.00  0.00    -0.233 N 
ATOM     14  N   *** d   *     -10.696   0.960  21.106  0.00  0.00    -0.162 NA
ATOM     15  C   *** d   *     -10.085   1.926  20.577  0.00  0.00     0.163 A 
ATOM     16  C   *** d   *      -8.847   1.924  21.065  0.00  0.00     0.070 A 
ATOM     17  C   *** d   *      -8.783   0.868  21.902  0.00  0.00     0.071 A 
ATOM     18  C   *** d   *      -7.582   0.475  22.391  0.00  0.00    -0.007 A 
ATOM     19  C   *** d   *      -7.304  -0.812  22.690  0.00  0.00     0.014 A 
ATOM     20  C   *** d   *      -6.539   1.324  22.510  0.00  0.00     0.014 A 
ATOM     21  C   *** d   *      -6.108  -1.213  23.144  0.00  0.00     0.007 A 
ATOM     22  C   *** d   *      -5.101  -0.341  23.303  0.00  0.00    -0.062 A 
ATOM     23  C   *** d   *      -5.337   0.937  22.968  0.00  0.00     0.007 A 
ATOM     24  C   *** d   *      -3.753  -0.789  23.815  0.00  0.00     0.048 C 
BRANCH  15  25
ATOM     25  C   *** d   *     -10.728   2.842  19.574  0.00  0.00     0.436 C 
ATOM     26  F   *** d   *      -9.831   3.416  18.788  0.00  0.00    -0.165 F 
ATOM     27  F   *** d   *     -11.409   3.801  20.182  0.00  0.00    -0.165 F 
ATOM     28  F   *** d   *     -11.575   2.177  18.803  0.00  0.00    -0.165 F 
ENDBRANCH  15  25
ENDBRANCH  10  13
ENDBRANCH   1   7
TORSDOF 4
ENDMDL
MODEL 14
REMARK VINA RESULT:      -6.4      5.298      6.896
REMARK  4 active torsions:
REMARK  status: ('A' for Active; 'I' for Inactive)
REMARK    1  A    between atoms: S_1  and  N_9 
REMARK    2  A    between atoms: S_1  and  C_17 
REMARK    3  A    between atoms: N_7  and  C_11 
REMARK    4  A    between atoms: C_14  and  C_25 
ROOT
ATOM      1  S   *** d   *      11.028   2.068 -11.349  0.00  0.00     0.239 S 
ATOM      2  O   *** d   *      12.431   1.786 -11.669  0.00  0.00    -0.206 OA
ATOM      3  O   *** d   *      10.382   1.528 -10.148  0.00  0.00    -0.206 OA
ENDROOT
BRANCH   1   4
ATOM      4  N   *** d   *      11.566   3.378 -10.407  0.00  0.00    -0.225 NA
ATOM      5  H   *** d   *      12.518   3.211 -10.082  0.00  0.00     0.136 HD
ATOM      6  H   *** d   *      11.611   4.224 -10.973  0.00  0.00     0.136 HD
ENDBRANCH   1   4
BRANCH   1   7
ATOM      7  C   *** d   *       9.957   2.498 -12.711  0.00  0.00     0.074 A 
ATOM      8  C   *** d   *       8.650   2.201 -12.682  0.00  0.00     0.027 A 
ATOM      9  C   *** d   *       7.848   2.548 -13.701  0.00  0.00     0.033 A 
ATOM     10  C   *** d   *       8.292   3.174 -14.817  0.00  0.00     0.059 A 
ATOM     11  C   *** d   *       9.600   3.506 -14.779  0.00  0.00     0.033 A 
ATOM     12  C   *** d   *      10.422   3.174 -13.770  0.00  0.00     0.027 A 
BRANCH  10  13
ATOM     13  N   *** d   *       7.497   3.503 -15.774  0.00  0.00    -0.233 N 
ATOM     14  N   *** d   *       6.473   4.143 -15.470  0.00  0.00    -0.162 NA
ATOM     15  C   *** d   *       5.852   4.524 -16.498  0.00  0.00     0.163 A 
ATOM     16  C   *** d   *       6.518   4.061 -17.554  0.00  0.00     0.070 A 
ATOM     17  C   *** d   *       7.559   3.364 -17.056  0.00  0.00     0.071 A 
ATOM     18  C   *** d   *       8.303   2.590 -17.883  0.00  0.00    -0.007 A 
ATOM     19  C   *** d   *       8.908   1.457 -17.470  0.00  0.00     0.014 A 
ATOM     20  C   *** d   *       8.401   2.836 -19.207  0.00  0.00     0.014 A 
ATOM     21  C   *** d   *       9.620   0.669 -18.290  0.00  0.00     0.007 A 
ATOM     22  C   *** d   *       9.745   0.962 -19.593  0.00  0.00    -0.062 A 
ATOM     23  C   *** d   *       9.113   2.059 -20.039  0.00  0.00     0.007 A 
ATOM     24  C   *** d   *      10.545   0.079 -20.520  0.00  0.00     0.048 C 
BRANCH  15  25
ATOM     25  C   *** d   *       4.589   5.335 -16.431  0.00  0.00     0.436 C 
ATOM     26  F   *** d   *       3.854   5.190 -17.522  0.00  0.00    -0.165 F 
ATOM     27  F   *** d   *       4.865   6.624 -16.296  0.00  0.00    -0.165 F 
ATOM     28  F   *** d   *       3.851   4.973 -15.393  0.00  0.00    -0.165 F 
ENDBRANCH  15  25
ENDBRANCH  10  13
ENDBRANCH   1   7
TORSDOF 4
ENDMDL
MODEL 15
REMARK VINA RESULT:      -6.3     37.979     40.625
REMARK  4 active torsions:
REMARK  status: ('A' for Active; 'I' for Inactive)
REMARK    1  A    between atoms: S_1  and  N_9 
REMARK    2  A    between atoms: S_1  and  C_17 
REMARK    3  A    between atoms: N_7  and  C_11 
REMARK    4  A    between atoms: C_14  and  C_25 
ROOT
ATOM      1  S   *** d   *     -11.324  -4.722  24.682  0.00  0.00     0.239 S 
ATOM      2  O   *** d   *     -12.687  -5.263  24.654  0.00  0.00    -0.206 OA
ATOM      3  O   *** d   *     -10.371  -5.075  25.739  0.00  0.00    -0.206 OA
ENDROOT
BRANCH   1   4
ATOM      4  N   *** d   *     -10.818  -6.108  23.835  0.00  0.00    -0.225 NA
ATOM      5  H   *** d   *     -10.556  -6.844  24.489  0.00  0.00     0.136 HD
ATOM      6  H   *** d   *     -11.589  -6.487  23.287  0.00  0.00     0.136 HD
ENDBRANCH   1   4
BRANCH   1   7
ATOM      7  C   *** d   *     -11.050  -3.172  23.840  0.00  0.00     0.074 A 
ATOM      8  C   *** d   *     -10.642  -2.085  24.511  0.00  0.00     0.027 A 
ATOM      9  C   *** d   *     -10.417  -0.930  23.865  0.00  0.00     0.033 A 
ATOM     10  C   *** d   *     -10.614  -0.769  22.535  0.00  0.00     0.059 A 
ATOM     11  C   *** d   *     -10.968  -1.902  21.891  0.00  0.00     0.033 A 
ATOM     12  C   *** d   *     -11.195  -3.071  22.512  0.00  0.00     0.027 A 
BRANCH  10  13
ATOM     13  N   *** d   *     -10.381   0.349  21.942  0.00  0.00    -0.233 N 
ATOM     14  N   *** d   *      -9.196   0.609  21.661  0.00  0.00    -0.162 NA
ATOM     15  C   *** d   *      -9.113   1.656  20.965  0.00  0.00     0.163 A 
ATOM     16  C   *** d   *     -10.348   2.127  20.814  0.00  0.00     0.070 A 
ATOM     17  C   *** d   *     -11.150   1.283  21.494  0.00  0.00     0.071 A 
ATOM     18  C   *** d   *     -12.446   1.617  21.706  0.00  0.00    -0.007 A 
ATOM     19  C   *** d   *     -13.129   1.223  22.801  0.00  0.00     0.014 A 
ATOM     20  C   *** d   *     -13.116   2.461  20.893  0.00  0.00     0.014 A 
ATOM     21  C   *** d   *     -14.403   1.576  23.034  0.00  0.00     0.007 A 
ATOM     22  C   *** d   *     -15.064   2.376  22.184  0.00  0.00    -0.062 A 
ATOM     23  C   *** d   *     -14.392   2.820  21.110  0.00  0.00     0.007 A 
ATOM     24  C   *** d   *     -16.497   2.775  22.441  0.00  0.00     0.048 C 
BRANCH  15  25
ATOM     25  C   *** d   *      -7.804   2.196  20.464  0.00  0.00     0.436 C 
ATOM     26  F   *** d   *      -7.037   1.241  19.962  0.00  0.00    -0.165 F 
ATOM     27  F   *** d   *      -7.132   2.785  21.441  0.00  0.00    -0.165 F 
ATOM     28  F   *** d   *      -8.000   3.098  19.514  0.00  0.00    -0.165 F 
ENDBRANCH  15  25
ENDBRANCH  10  13
ENDBRANCH   1   7
TORSDOF 4
ENDMDL
MODEL 16
REMARK VINA RESULT:      -6.2     17.809     18.999
REMARK  4 active torsions:
REMARK  status: ('A' for Active; 'I' for Inactive)
REMARK    1  A    between atoms: S_1  and  N_9 
REMARK    2  A    between atoms: S_1  and  C_17 
REMARK    3  A    between atoms: N_7  and  C_11 
REMARK    4  A    between atoms: C_14  and  C_25 
ROOT
ATOM      1  S   *** d   *      19.552 -14.415  -5.237  0.00  0.00     0.239 S 
ATOM      2  O   *** d   *      19.941 -13.196  -4.522  0.00  0.00    -0.206 OA
ATOM      3  O   *** d   *      20.463 -15.555  -5.383  0.00  0.00    -0.206 OA
ENDROOT
BRANCH   1   4
ATOM      4  N   *** d   *      19.061 -15.066  -3.745  0.00  0.00    -0.225 NA
ATOM      5  H   *** d   *      18.473 -15.885  -3.894  0.00  0.00     0.136 HD
ATOM      6  H   *** d   *      19.871 -15.398  -3.221  0.00  0.00     0.136 HD
ENDBRANCH   1   4
BRANCH   1   7
ATOM      7  C   *** d   *      18.261 -14.259  -6.462  0.00  0.00     0.074 A 
ATOM      8  C   *** d   *      18.211 -13.199  -7.280  0.00  0.00     0.027 A 
ATOM      9  C   *** d   *      17.250 -13.101  -8.212  0.00  0.00     0.033 A 
ATOM     10  C   *** d   *      16.268 -14.021  -8.368  0.00  0.00     0.059 A 
ATOM     11  C   *** d   *      16.391 -15.099  -7.565  0.00  0.00     0.033 A 
ATOM     12  C   *** d   *      17.345 -15.222  -6.627  0.00  0.00     0.027 A 
BRANCH  10  13
ATOM     13  N   *** d   *      15.365 -13.904  -9.278  0.00  0.00    -0.233 N 
ATOM     14  N   *** d   *      14.233 -13.536  -8.913  0.00  0.00    -0.162 NA
ATOM     15  C   *** d   *      13.481 -13.326  -9.902  0.00  0.00     0.163 A 
ATOM     16  C   *** d   *      14.182 -13.615 -10.996  0.00  0.00     0.070 A 
ATOM     17  C   *** d   *      15.389 -14.030 -10.562  0.00  0.00     0.071 A 
ATOM     18  C   *** d   *      16.255 -14.599 -11.435  0.00  0.00    -0.007 A 
ATOM     19  C   *** d   *      17.144 -15.545 -11.066  0.00  0.00     0.014 A 
ATOM     20  C   *** d   *      16.215 -14.343 -12.760  0.00  0.00     0.014 A 
ATOM     21  C   *** d   *      17.982 -16.136 -11.931  0.00  0.00     0.007 A 
ATOM     22  C   *** d   *      17.959 -15.827 -13.236  0.00  0.00    -0.062 A 
ATOM     23  C   *** d   *      17.051 -14.923 -13.636  0.00  0.00     0.007 A 
ATOM     24  C   *** d   *      18.901 -16.489 -14.212  0.00  0.00     0.048 C 
BRANCH  15  25
ATOM     25  C   *** d   *      12.063 -12.852  -9.759  0.00  0.00     0.436 C 
ATOM     26  F   *** d   *      11.676 -12.137 -10.803  0.00  0.00    -0.165 F 
ATOM     27  F   *** d   *      11.924 -12.101  -8.678  0.00  0.00    -0.165 F 
ATOM     28  F   *** d   *      11.233 -13.878  -9.642  0.00  0.00    -0.165 F 
ENDBRANCH  15  25
ENDBRANCH  10  13
ENDBRANCH   1   7
TORSDOF 4
ENDMDL
MODEL 17
REMARK VINA RESULT:      -6.1     30.998     32.945
REMARK  4 active torsions:
REMARK  status: ('A' for Active; 'I' for Inactive)
REMARK    1  A    between atoms: S_1  and  N_9 
REMARK    2  A    between atoms: S_1  and  C_17 
REMARK    3  A    between atoms: N_7  and  C_11 
REMARK    4  A    between atoms: C_14  and  C_25 
ROOT
ATOM      1  S   *** d   *     -17.019 -12.400  -7.218  0.00  0.00     0.239 S 
ATOM      2  O   *** d   *     -18.043 -11.810  -8.087  0.00  0.00    -0.206 OA
ATOM      3  O   *** d   *     -16.257 -13.589  -7.613  0.00  0.00    -0.206 OA
ENDROOT
BRANCH   1   4
ATOM      4  N   *** d   *     -15.865 -11.454  -8.033  0.00  0.00    -0.225 NA
ATOM      5  H   *** d   *     -15.498 -10.733  -7.413  0.00  0.00     0.136 HD
ATOM      6  H   *** d   *     -15.062 -12.026  -8.296  0.00  0.00     0.136 HD
ENDBRANCH   1   4
BRANCH   1   7
ATOM      7  C   *** d   *     -17.163 -12.085  -5.466  0.00  0.00     0.074 A 
ATOM      8  C   *** d   *     -17.361 -13.088  -4.599  0.00  0.00     0.027 A 
ATOM      9  C   *** d   *     -17.445 -12.843  -3.282  0.00  0.00     0.033 A 
ATOM     10  C   *** d   *     -17.376 -11.600  -2.749  0.00  0.00     0.059 A 
ATOM     11  C   *** d   *     -17.118 -10.629  -3.651  0.00  0.00     0.033 A 
ATOM     12  C   *** d   *     -17.025 -10.847  -4.973  0.00  0.00     0.027 A 
BRANCH  10  13
ATOM     13  N   *** d   *     -17.451 -11.399  -1.480  0.00  0.00    -0.233 N 
ATOM     14  N   *** d   *     -16.652 -12.020  -0.756  0.00  0.00    -0.162 NA
ATOM     15  C   *** d   *     -16.730 -11.637   0.442  0.00  0.00     0.163 A 
ATOM     16  C   *** d   *     -17.684 -10.711   0.497  0.00  0.00     0.070 A 
ATOM     17  C   *** d   *     -18.168 -10.605  -0.758  0.00  0.00     0.071 A 
ATOM     18  C   *** d   *     -19.299  -9.894  -0.981  0.00  0.00    -0.007 A 
ATOM     19  C   *** d   *     -20.167 -10.199  -1.968  0.00  0.00     0.014 A 
ATOM     20  C   *** d   *     -19.698  -8.898  -0.161  0.00  0.00     0.014 A 
ATOM     21  C   *** d   *     -21.306  -9.520  -2.175  0.00  0.00     0.007 A 
ATOM     22  C   *** d   *     -21.655  -8.499  -1.378  0.00  0.00    -0.062 A 
ATOM     23  C   *** d   *     -20.832  -8.206  -0.359  0.00  0.00     0.007 A 
ATOM     24  C   *** d   *     -22.935  -7.731  -1.607  0.00  0.00     0.048 C 
BRANCH  15  25
ATOM     25  C   *** d   *     -15.865 -12.201   1.534  0.00  0.00     0.436 C 
ATOM     26  F   *** d   *     -14.739 -12.707   1.058  0.00  0.00    -0.165 F 
ATOM     27  F   *** d   *     -16.500 -13.163   2.186  0.00  0.00    -0.165 F 
ATOM     28  F   *** d   *     -15.548 -11.263   2.414  0.00  0.00    -0.165 F 
ENDBRANCH  15  25
ENDBRANCH  10  13
ENDBRANCH   1   7
TORSDOF 4
ENDMDL
MODEL 18
REMARK VINA RESULT:      -6.1      7.944     10.201
REMARK  4 active torsions:
REMARK  status: ('A' for Active; 'I' for Inactive)
REMARK    1  A    between atoms: S_1  and  N_9 
REMARK    2  A    between atoms: S_1  and  C_17 
REMARK    3  A    between atoms: N_7  and  C_11 
REMARK    4  A    between atoms: C_14  and  C_25 
ROOT
ATOM      1  S   *** d   *      15.613   1.421 -14.569  0.00  0.00     0.239 S 
ATOM      2  O   *** d   *      16.272   0.654 -15.631  0.00  0.00    -0.206 OA
ATOM      3  O   *** d   *      14.225   1.878 -14.688  0.00  0.00    -0.206 OA
ENDROOT
BRANCH   1   4
ATOM      4  N   *** d   *      15.021  -0.049 -13.952  0.00  0.00    -0.225 NA
ATOM      5  H   *** d   *      14.358   0.127 -13.199  0.00  0.00     0.136 HD
ATOM      6  H   *** d   *      14.498  -0.547 -14.671  0.00  0.00     0.136 HD
ENDBRANCH   1   4
BRANCH   1   7
ATOM      7  C   *** d   *      16.668   2.343 -13.461  0.00  0.00     0.074 A 
ATOM      8  C   *** d   *      17.160   3.539 -13.813  0.00  0.00     0.027 A 
ATOM      9  C   *** d   *      17.935   4.234 -12.964  0.00  0.00     0.033 A 
ATOM     10  C   *** d   *      18.295   3.778 -11.741  0.00  0.00     0.059 A 
ATOM     11  C   *** d   *      17.731   2.598 -11.406  0.00  0.00     0.033 A 
ATOM     12  C   *** d   *      16.950   1.885 -12.234  0.00  0.00     0.027 A 
BRANCH  10  13
ATOM     13  N   *** d   *      19.032   4.472 -10.946  0.00  0.00    -0.233 N 
ATOM     14  N   *** d   *      18.451   5.223 -10.141  0.00  0.00    -0.162 NA
ATOM     15  C   *** d   *      19.265   5.739  -9.330  0.00  0.00     0.163 A 
ATOM     16  C   *** d   *      20.479   5.306  -9.663  0.00  0.00     0.070 A 
ATOM     17  C   *** d   *      20.306   4.517 -10.743  0.00  0.00     0.071 A 
ATOM     18  C   *** d   *      21.386   4.098 -11.446  0.00  0.00    -0.007 A 
ATOM     19  C   *** d   *      21.344   3.866 -12.775  0.00  0.00     0.014 A 
ATOM     20  C   *** d   *      22.611   3.990 -10.889  0.00  0.00     0.014 A 
ATOM     21  C   *** d   *      22.416   3.481 -13.483  0.00  0.00     0.007 A 
ATOM     22  C   *** d   *      23.613   3.331 -12.896  0.00  0.00    -0.062 A 
ATOM     23  C   *** d   *      23.692   3.602 -11.584  0.00  0.00     0.007 A 
ATOM     24  C   *** d   *      24.823   2.898 -13.689  0.00  0.00     0.048 C 
BRANCH  15  25
ATOM     25  C   *** d   *      18.840   6.673  -8.234  0.00  0.00     0.436 C 
ATOM     26  F   *** d   *      18.246   6.029  -7.242  0.00  0.00    -0.165 F 
ATOM     27  F   *** d   *      17.992   7.582  -8.692  0.00  0.00    -0.165 F 
ATOM     28  F   *** d   *      19.883   7.317  -7.732  0.00  0.00    -0.165 F 
ENDBRANCH  15  25
ENDBRANCH  10  13
ENDBRANCH   1   7
TORSDOF 4
ENDMDL
MODEL 19
REMARK VINA RESULT:      -5.9      7.749     10.401
REMARK  4 active torsions:
REMARK  status: ('A' for Active; 'I' for Inactive)
REMARK    1  A    between atoms: S_1  and  N_9 
REMARK    2  A    between atoms: S_1  and  C_17 
REMARK    3  A    between atoms: N_7  and  C_11 
REMARK    4  A    between atoms: C_14  and  C_25 
ROOT
ATOM      1  S   *** d   *      14.898   1.805 -13.089  0.00  0.00     0.239 S 
ATOM      2  O   *** d   *      14.854   0.366 -13.367  0.00  0.00    -0.206 OA
ATOM      3  O   *** d   *      14.004   2.753 -13.760  0.00  0.00    -0.206 OA
ENDROOT
BRANCH   1   4
ATOM      4  N   *** d   *      13.681   1.559 -11.927  0.00  0.00    -0.225 NA
ATOM      5  H   *** d   *      12.769   1.505 -12.379  0.00  0.00     0.136 HD
ATOM      6  H   *** d   *      13.812   0.661 -11.462  0.00  0.00     0.136 HD
ENDBRANCH   1   4
BRANCH   1   7
ATOM      7  C   *** d   *      16.434   2.461 -12.456  0.00  0.00     0.074 A 
ATOM      8  C   *** d   *      17.019   1.928 -11.374  0.00  0.00     0.027 A 
ATOM      9  C   *** d   *      18.185   2.414 -10.920  0.00  0.00     0.033 A 
ATOM     10  C   *** d   *      18.820   3.470 -11.480  0.00  0.00     0.059 A 
ATOM     11  C   *** d   *      18.227   3.938 -12.600  0.00  0.00     0.033 A 
ATOM     12  C   *** d   *      17.064   3.467 -13.077  0.00  0.00     0.027 A 
BRANCH  10  13
ATOM     13  N   *** d   *      19.942   3.908 -11.027  0.00  0.00    -0.233 N 
ATOM     14  N   *** d   *      20.976   3.328 -11.406  0.00  0.00    -0.162 NA
ATOM     15  C   *** d   *      22.008   3.930 -11.009  0.00  0.00     0.163 A 
ATOM     16  C   *** d   *      21.602   4.970 -10.284  0.00  0.00     0.070 A 
ATOM     17  C   *** d   *      20.255   4.910 -10.275  0.00  0.00     0.071 A 
ATOM     18  C   *** d   *      19.555   5.714  -9.439  0.00  0.00    -0.007 A 
ATOM     19  C   *** d   *      18.368   5.353  -8.908  0.00  0.00     0.014 A 
ATOM     20  C   *** d   *      20.047   6.887  -8.988  0.00  0.00     0.014 A 
ATOM     21  C   *** d   *      17.684   6.131  -8.054  0.00  0.00     0.007 A 
ATOM     22  C   *** d   *      18.170   7.317  -7.660  0.00  0.00    -0.062 A 
ATOM     23  C   *** d   *      19.372   7.678  -8.137  0.00  0.00     0.007 A 
ATOM     24  C   *** d   *      17.404   8.195  -6.700  0.00  0.00     0.048 C 
BRANCH  15  25
ATOM     25  C   *** d   *      23.399   3.464 -11.337  0.00  0.00     0.436 C 
ATOM     26  F   *** d   *      24.318   4.289 -10.863  0.00  0.00    -0.165 F 
ATOM     27  F   *** d   *      23.568   3.375 -12.647  0.00  0.00    -0.165 F 
ATOM     28  F   *** d   *      23.627   2.265 -10.822  0.00  0.00    -0.165 F 
ENDBRANCH  15  25
ENDBRANCH  10  13
ENDBRANCH   1   7
TORSDOF 4
ENDMDL
MODEL 20
REMARK VINA RESULT:      -5.9      8.158     10.292
REMARK  4 active torsions:
REMARK  status: ('A' for Active; 'I' for Inactive)
REMARK    1  A    between atoms: S_1  and  N_9 
REMARK    2  A    between atoms: S_1  and  C_17 
REMARK    3  A    between atoms: N_7  and  C_11 
REMARK    4  A    between atoms: C_14  and  C_25 
ROOT
ATOM      1  S   *** d   *      14.926   1.695 -13.242  0.00  0.00     0.239 S 
ATOM      2  O   *** d   *      14.878   0.250 -13.488  0.00  0.00    -0.206 OA
ATOM      3  O   *** d   *      14.106   2.640 -14.005  0.00  0.00    -0.206 OA
ENDROOT
BRANCH   1   4
ATOM      4  N   *** d   *      13.616   1.499 -12.176  0.00  0.00    -0.225 NA
ATOM      5  H   *** d   *      12.742   1.449 -12.698  0.00  0.00     0.136 HD
ATOM      6  H   *** d   *      13.693   0.612 -11.681  0.00  0.00     0.136 HD
ENDBRANCH   1   4
BRANCH   1   7
ATOM      7  C   *** d   *      16.419   2.342 -12.505  0.00  0.00     0.074 A 
ATOM      8  C   *** d   *      16.933   1.795 -11.395  0.00  0.00     0.027 A 
ATOM      9  C   *** d   *      18.068   2.274 -10.861  0.00  0.00     0.033 A 
ATOM     10  C   *** d   *      18.738   3.337 -11.367  0.00  0.00     0.059 A 
ATOM     11  C   *** d   *      18.218   3.819 -12.516  0.00  0.00     0.033 A 
ATOM     12  C   *** d   *      17.087   3.355 -13.073  0.00  0.00     0.027 A 
BRANCH  10  13
ATOM     13  N   *** d   *      19.829   3.768 -10.838  0.00  0.00    -0.233 N 
ATOM     14  N   *** d   *      19.760   4.811 -10.161  0.00  0.00    -0.162 NA
ATOM     15  C   *** d   *      20.854   5.053  -9.586  0.00  0.00     0.163 A 
ATOM     16  C   *** d   *      21.709   4.100  -9.949  0.00  0.00     0.070 A 
ATOM     17  C   *** d   *      21.031   3.300 -10.797  0.00  0.00     0.071 A 
ATOM     18  C   *** d   *      21.698   2.358 -11.506  0.00  0.00    -0.007 A 
ATOM     19  C   *** d   *      21.307   1.959 -12.735  0.00  0.00     0.014 A 
ATOM     20  C   *** d   *      22.866   1.830 -11.083  0.00  0.00     0.014 A 
ATOM     21  C   *** d   *      21.980   1.050 -13.456  0.00  0.00     0.007 A 
ATOM     22  C   *** d   *      23.112   0.501 -12.991  0.00  0.00    -0.062 A 
ATOM     23  C   *** d   *      23.548   0.915 -11.791  0.00  0.00     0.007 A 
ATOM     24  C   *** d   *      23.873  -0.523 -13.799  0.00  0.00     0.048 C 
BRANCH  15  25
ATOM     25  C   *** d   *      21.055   6.240  -8.686  0.00  0.00     0.436 C 
ATOM     26  F   *** d   *      22.133   6.107  -7.930  0.00  0.00    -0.165 F 
ATOM     27  F   *** d   *      20.014   6.403  -7.884  0.00  0.00    -0.165 F 
ATOM     28  F   *** d   *      21.192   7.350  -9.395  0.00  0.00    -0.165 F 
ENDBRANCH  15  25
ENDBRANCH  10  13
ENDBRANCH   1   7
TORSDOF 4
ENDMDL
